LTspice 24.0.11 for Windows
Circuit: * C:\Users\HP\eda\designs\CEMS_DSM\DSM\LTSpice\DSM_using_VCCS.asc
Start Time: Mon Feb 10 02:39:17 2025
Error: unknown token in: "v(in)>v(vdd)/2[?]v(vss):v(vdd)"
Error: unknown token in: "v(hold)>0[?]v(vdd):0"
solver = Normal
Maximum thread count: 12
tnom = 27
temp = 27
method = modified trap
WARNING: Less than two connections to node vd.  This node is used by a§dff.
WARNING: Less than two connections to node trip.  This node is used by etrip1.
Direct Newton iteration for .op point succeeded.
Total elapsed time: 0.207 seconds.

