LTspice 24.0.11 for Windows
Circuit: * C:\Users\HP\eda\designs\CEMS_DSM\DSM\LTSpice\DSM_using_VCCS.asc
Start Time: Tue Feb 11 21:15:31 2025
Error: unknown token in: "v(in)>v(vdd)/2[?]v(vss):v(vdd)"
Error: unknown token in: "v(hold)>0[?]v(vdd):0"
solver = Normal
Maximum thread count: 12
tnom = 27
temp = 27
method = modified trap
WARNING: Less than two connections to node vd.  This node is used by a§dff.
Per .tran options, skipping operating point for transient analysis.
Total elapsed time: 3.237 seconds.

